<routes>
    <vType id="car1" type="passenger" lenght="5" accel="3.5" decel="2.2" sigma="1.0" />
    <flow id="carflow" type="car1" beg="0" end="0" number="5" from="E7" to="E3" />
</routes>