<configuration>
    <input>
        <net-file value="example.net.xml" />
        <route-files value="example.rou.xml" />
        <additionals-files value="example.add.xml">    
    </input>
</configuration>