<configuration>
    <input>
        <net-file value="example.net.xml" />
        <route-files value="example.rou.xml" />        
    </input>
</configuration>