<routes>
    <!-- Vehicles Instances -->
    <!-- Cars -->
    <vType id="car_0" vClass="passenger" lenght="5" accel="3.5" decel="2.2" sigma="1.0" color="1,0,0"/>
    <vType id="car_1" type="passenger" lenght="5" accel="5.5" decel="2.2" sigma="1.0" color="0,1,0"/>
    <!-- Scooter -->
    <vType id="scooter_0" vClass="motorcycle" lenght="1.5" accel="6.0" decel="10.0" sigma="1.0" color="0,1,1"/>
    <!-- First flow def: car_0 -->
    <flow id="carflow_0" type="car_0" beg="0" end="0" number="5" from="E7" to="E3" />
    <!-- Second flow def: car_1 -->
    <flow id="carflow_1" type="car_1" beg="0" end="0" number="5" from="E7" to="E3" />
    <!-- Third flow def: scooter_0 -->
    <flow id="scooterflow_3" type="scooter_0" beg="0" end="0" number="5" from="E7" to="E3" />
</routes>