<configuration>
    <input>
        <net-file value="example.net.xml" />
        <route-files value="example.rou.xml" />
        <additional-files value="example.add.xml" />    
    </input> 
</configuration>